5
XYZ file generated by gabedit : coordinates in Angstrom
C         -0.0000000000          0.0000000000         -0.0000030000
H         -0.0000000000          0.0000000000          1.0898470000
H          1.0275200000          0.0000000000         -0.3632720000
H         -0.5137600000         -0.8898580000         -0.3632720000
H         -0.5137600000          0.8898580000         -0.3632720000
 
